03_OpenDSS_Circuits/Bellhaven_Circuit_Opendss/Sections.DSS
// *******************************
// Defines Line names (Sections) for fused and regulators
New Line.263514997 Bus1=263514994 Bus2=260745387
New Line.260972099 Bus1=260972100 Bus2=260972095
New Line.261002729 Bus1=261002726 Bus2=261002710
New Line.259005024 Bus1=259005026 Bus2=259005021
New Line.260784288 Bus1=260784285 Bus2=260784290
New Line.259172454 Bus1=258851372 Bus2=258851376
New Line.471228029 Bus1=471228026 Bus2=264494246
New Line.260784283 Bus1=260784280 Bus2=260784285
New Line.260972114 Bus1=260972111 Bus2=260972116
New Line.259005029 Bus1=259005031 Bus2=259005026
New Line.261002704 Bus1=261002705 Bus2=261002706
New Line.469799526 Bus1=469799524 Bus2=258840494
New Line.471228024 Bus1=258840526 Bus2=471228026
New Line.259583268 Bus1=258850750 Bus2=258850754
New Line.259172459 Bus1=259172460 Bus2=259172461
New Line.469799525 Bus1=258840489 Bus2=469799524
New Line.260972119 Bus1=260972116 Bus2=260972080
New Line.261031162 Bus1=261031159 Bus2=260972090
New Line.260784308 Bus1=260784305 Bus2=260784310
New Line.460932370 Bus1=460932367 Bus2=261124323
New Line.259005007 Bus1=259005009 Bus2=259005002
New Line.261085131 Bus1=261085132 Bus2=261085133
New Line.259005085 Bus1=259005082 Bus2=259005087
New Line.263996171 Bus1=259005082 Bus2=263996173
New Line.263996176 Bus1=263996173 Bus2=259545333
New Line.460932377 Bus1=259357188 Bus2=460932379
New Line.259005000 Bus1=259005002 Bus2=259004995
New Line.260784303 Bus1=260784300 Bus2=260784305
New Line.259005080 Bus1=259005077 Bus2=259005082
New Line.264504387 Bus1=258850734 Bus2=264504389
New Line.263730568 Bus1=259237105 Bus2=263730570
New Line.469544353 Bus1=258850628 Bus2=264379499
New Line.471228080 Bus1=258840546 Bus2=258840551
New Line.259005102 Bus1=259005099 Bus2=259005104
New Line.263730564 Bus1=263730561 Bus2=261002746
New Line.469800070 Bus1=469800067 Bus2=472683966
New Line.460932411 Bus1=259357189 Bus2=460932413
New Line.264254807 Bus1=260745462 Bus2=264254805
New Line.261107769 Bus1=261085128 Bus2=261107771
New Line.260745475 Bus1=260745472 Bus2=260745427
New Line.263511662 Bus1=258839921 Bus2=263511664
New Line.263511667 Bus1=263511664 Bus2=258851476
New Line.263862865 Bus1=259371848 Bus2=263862867
New Line.460932294 Bus1=460932291 Bus2=258840373
New Line.263511743 Bus1=258840267 Bus2=263511745
New Line.460932399 Bus1=259357189 Bus2=460932401
New Line.263565066 Bus1=259004985 Bus2=263565068
New Line.264311804 Bus1=261124323 Bus2=264311802
New Line.260745435 Bus1=260745432 Bus2=260745437
New Line.384045894 Bus1=259004973 Bus2=384045889
New Line.263511748 Bus1=263511745 Bus2=258851054
New Line.263730582 Bus1=263730579 Bus2=261002716
New Line.263730586 Bus1=259237110 Bus2=263730588
New Line.263701642 Bus1=263701639 Bus2=260972100
New Line.264292384 Bus1=260972090 Bus2=264292382
New Line.263511721 Bus1=263511718 Bus2=258851313
New Line.259140636 Bus1=259005072 Bus2=259005076
New Line.263511725 Bus1=258840247 Bus2=263511727
New Line.263511680 Bus1=258840012 Bus2=263511682
New Line.263511685 Bus1=263511682 Bus2=258840142
New Line.263701628 Bus1=258851446 Bus2=263701630
New Line.263511689 Bus1=258840027 Bus2=263511691
New Line.259004983 Bus1=259004985 Bus2=259004984
New Line.263511703 Bus1=263511700 Bus2=258840072
New Line.263701624 Bus1=263701621 Bus2=260972111
New Line.258850663 Bus1=258850660 Bus2=258850665
New Line.258840465 Bus1=258840462 Bus2=258840467
New Line.263511707 Bus1=258840200 Bus2=263511709
New Line.258839874 Bus1=258839871 Bus2=258839876
New Line.258840460 Bus1=258840457 Bus2=258840462
New Line.259176597 Bus1=258850618 Bus2=259121514
New Line.263511788 Bus1=258840452 Bus2=263511790
New Line.258850668 Bus1=258850665 Bus2=258850670
New Line.259004988 Bus1=259004990 Bus2=259004985
New Line.263638665 Bus1=258840515 Bus2=263638667
New Line.258839879 Bus1=258839876 Bus2=258839881
New Line.258850763 Bus1=258850760 Bus2=258850765
New Line.263701601 Bus1=258851447 Bus2=263701603
New Line.263701606 Bus1=263701603 Bus2=261031178
New Line.263565080 Bus1=263565077 Bus2=260784245
New Line.264494249 Bus1=264494246 Bus2=258840531
New Line.258850643 Bus1=258850638 Bus2=258850645
New Line.258850768 Bus1=258850765 Bus2=258850770
New Line.260745310 Bus1=260745311 Bus2=260745312
New Line.258839971 Bus1=258839968 Bus2=258839973
New Line.263565084 Bus1=259005092 Bus2=263565086
New Line.258839857 Bus1=258839854 Bus2=258839859
New Line.263565089 Bus1=263565086 Bus2=260784225
New Line.258839852 Bus1=258839840 Bus2=258839854
New Line.258839978 Bus1=258839973 Bus2=258839980
New Line.258850648 Bus1=258850645 Bus2=258850650
New Line.258840265 Bus1=258840262 Bus2=258840267
New Line.258840260 Bus1=258840257 Bus2=258840262
New Line.264494225 Bus1=258840292 Bus2=264494227
New Line.263697818 Bus1=263697815 Bus2=258840178
New Line.258850743 Bus1=258850740 Bus2=258850745
New Line.264494221 Bus1=264494218 Bus2=258840388
New Line.258840544 Bus1=258840541 Bus2=258840546
New Line.258839956 Bus1=258839953 Bus2=258839958
New Line.258850626 Bus1=258850564 Bus2=258850628
New Line.258850567 Bus1=258850559 Bus2=258850569
New Line.263973888 Bus1=258850970 Bus2=263973890
New Line.263697813 Bus1=258840164 Bus2=263697815
New Line.263761822 Bus1=258850581 Bus2=263761824
New Line.258850562 Bus1=258850559 Bus2=258850564
New Line.258850748 Bus1=258850740 Bus2=258850750
New Line.258839951 Bus1=258839948 Bus2=258839953
New Line.258840364 Bus1=258840365 Bus2=258840366
New Line.258850621 Bus1=258850576 Bus2=258850623
New Line.258851464 Bus1=258851452 Bus2=258851466
New Line.263761827 Bus1=263761824 Bus2=258850586
New Line.258840423 Bus1=258840413 Bus2=258840425
New Line.258839833 Bus1=BELLHAVEN_RET_01291204_reg Bus2=258839835
New Line.258840245 Bus1=258840242 Bus2=258840247
New Line.258840428 Bus1=258840425 Bus2=258840430
New Line.258840240 Bus1=258840235 Bus2=258840242
New Line.264494202 Bus1=264494199 Bus2=258840052
New Line.258851469 Bus1=258839963 Bus2=258851471
New Line.258839838 Bus1=258839835 Bus2=258839840
New Line.258850723 Bus1=258850720 Bus2=258850725
New Line.258840524 Bus1=258840521 Bus2=258840526
New Line.258840065 Bus1=258840062 Bus2=258840067
New Line.258850606 Bus1=258850603 Bus2=258850608
New Line.258839934 Bus1=258839931 Bus2=258839936
New Line.258840060 Bus1=258840057 Bus2=258840062
New Line.258850547 Bus1=258850544 Bus2=258850549
New Line.258840406 Bus1=258840403 Bus2=258840408
New Line.258840487 Bus1=258840484 Bus2=258840489
New Line.258850542 Bus1=258850537 Bus2=258850544
New Line.258850683 Bus1=258850675 Bus2=258850685
New Line.264494209 Bus1=258840067 Bus2=264494211
New Line.258850728 Bus1=258850725 Bus2=258850730
New Line.258840344 Bus1=258840339 Bus2=258840346
New Line.258850601 Bus1=258850596 Bus2=258850603
New Line.258840482 Bus1=258840479 Bus2=258840484
New Line.258851445 Bus1=258851446 Bus2=258851447
New Line.258839894 Bus1=258839891 Bus2=258839896
New Line.258840401 Bus1=258840398 Bus2=258840403
New Line.258851440 Bus1=258851437 Bus2=258851442
New Line.258850688 Bus1=258850685 Bus2=258850690
New Line.258851266 Bus1=258851249 Bus2=258851268
New Line.258840162 Bus1=258840159 Bus2=258840164
New Line.258840223 Bus1=258840220 Bus2=258840225
New Line.258840349 Bus1=258840346 Bus2=258840351
New Line.258839899 Bus1=258839896 Bus2=258839901
New Line.263714480 Bus1=263714477 Bus2=259223113
New Line.258850703 Bus1=258850700 Bus2=258850705
New Line.258840504 Bus1=258840499 Bus2=258840506
New Line.466987567 Bus1=466987507 Bus2=466987565
New Line.258840045 Bus1=258840042 Bus2=258840047
New Line.258840228 Bus1=258840225 Bus2=258840230
New Line.258839914 Bus1=258839911 Bus2=258839916
New Line.258840040 Bus1=258840037 Bus2=258840042
New Line.258840169 Bus1=258840164 Bus2=258840171
New Line.263515060 Bus1=263515057 Bus2=260745457
New Line.466987568 Bus1=466987565 Bus2=260745407
New Line.258839993 Bus1=258839990 Bus2=258839995
New Line.258840327 Bus1=258840324 Bus2=258840329
New Line.258850708 Bus1=258850705 Bus2=258850710
New Line.263515064 Bus1=258851096 Bus2=263515066
New Line.258850521 Bus1=258850518 Bus2=258850523
New Line.258840322 Bus1=258840312 Bus2=258840324
New Line.258851425 Bus1=258851417 Bus2=258851427
New Line.258840509 Bus1=258840506 Bus2=258840511
New Line.263515069 Bus1=263515066 Bus2=260745417
New Line.258851363 Bus1=258851360 Bus2=258851365
New Line.258851420 Bus1=258851417 Bus2=258851422
New Line.264567411 Bus1=264567408 Bus2=258850740
New Line.258839919 Bus1=258839916 Bus2=258839921
New Line.258840147 Bus1=258840142 Bus2=258840149
New Line.258850528 Bus1=258850518 Bus2=258850530
New Line.258840285 Bus1=258840282 Bus2=258840287
New Line.258851247 Bus1=258851217 Bus2=258851249
New Line.258840203 Bus1=258840200 Bus2=258840205
New Line.263515163 Bus1=258851471 Bus2=263515165
New Line.258851242 Bus1=258851237 Bus2=258851244
New Line.264494184 Bus1=264494181 Bus2=258839911
New Line.258840280 Bus1=258840277 Bus2=258840282
New Line.258840025 Bus1=258840022 Bus2=258840027
New Line.258851067 Bus1=258851064 Bus2=258851069
New Line.263515042 Bus1=263515039 Bus2=258851064
New Line.258840208 Bus1=258840209 Bus2=258840210
New Line.263515168 Bus1=263515165 Bus2=260745494
New Line.258840020 Bus1=258840017 Bus2=258840022
New Line.263515046 Bus1=258851091 Bus2=263515048
New Line.264494188 Bus1=258839995 Bus2=264494190
New Line.258851346 Bus1=258851343 Bus2=258851348
New Line.258840305 Bus1=258840302 Bus2=258840307
New Line.258851405 Bus1=258851402 Bus2=258851407
New Line.258840300 Bus1=258840297 Bus2=258840302
New Line.259121513 Bus1=259121514 Bus2=259121515
New Line.258851400 Bus1=258851397 Bus2=258851402
New Line.258851481 Bus1=258851476 Bus2=258851483
New Line.258851341 Bus1=258851338 Bus2=258851343
New Line.258850589 Bus1=258850586 Bus2=258850591
New Line.258840125 Bus1=258840122 Bus2=258840127
New Line.258851225 Bus1=258851222 Bus2=258851227
New Line.258840120 Bus1=258840079 Bus2=258840122
New Line.263515141 Bus1=263515138 Bus2=258851377
New Line.263515145 Bus1=258851372 Bus2=263515147
New Line.258840084 Bus1=258840072 Bus2=258840086
New Line.258851047 Bus1=460932520 Bus2=258851049
New Line.258851168 Bus1=258851160 Bus2=258851170
New Line.259200539 Bus1=258840032 Bus2=258840036
New Line.263815486 Bus1=263815483 Bus2=261085132
New Line.259371831 Bus1=258840205 Bus2=258840209
New Line.258851326 Bus1=258851323 Bus2=258851328
New Line.263815481 Bus1=259312123 Bus2=263815483
New Line.263515028 Bus1=258851049 Bus2=263515030
New Line.259545336 Bus1=259545333 Bus2=259545338
New Line.259223116 Bus1=258840215 Bus2=258840219
New Line.260987677 Bus1=260745346 Bus2=260987679
New Line.259357192 Bus1=259357184 Bus2=259357188
New Line.258840105 Bus1=258840100 Bus2=258840107
New Line.258851286 Bus1=258851283 Bus2=258851288
New Line.258840183 Bus1=258840164 Bus2=258840185
New Line.258851205 Bus1=258851202 Bus2=258851207
New Line.263515123 Bus1=263515120 Bus2=260745447
New Line.258851143 Bus1=258851138 Bus2=258851145
New Line.258851200 Bus1=258851197 Bus2=258851202
New Line.258851281 Bus1=258851278 Bus2=258851283
New Line.263515127 Bus1=258840190 Bus2=263515129
New Line.263515082 Bus1=258851155 Bus2=263515084
New Line.258840188 Bus1=258840185 Bus2=258840190
New Line.258851022 Bus1=258851019 Bus2=258851024
New Line.258851148 Bus1=258851145 Bus2=258851150
New Line.263515001 Bus1=258850970 Bus2=263515003
New Line.263515006 Bus1=263515003 Bus2=258850982
New Line.263515087 Bus1=263515084 Bus2=258851165
New Line.264341153 Bus1=261311161 Bus2=264341151
New Line.258851385 Bus1=258851382 Bus2=258851387
New Line.258851301 Bus1=258851298 Bus2=258851303
New Line.258851380 Bus1=258851377 Bus2=258851382
New Line.258851126 Bus1=258851123 Bus2=258851128
New Line.263515100 Bus1=258851212 Bus2=263515102
New Line.258851121 Bus1=258851113 Bus2=258851123
New Line.263515105 Bus1=263515102 Bus2=258851222
New Line.258851007 Bus1=258850999 Bus2=258851009
New Line.258851002 Bus1=258850999 Bus2=258851004
New Line.263515109 Bus1=258851175 Bus2=263515111
New Line.258851082 Bus1=258851079 Bus2=258851084
New Line.472684497 Bus1=472684459 Bus2=472684499
New Line.259237098 Bus1=259004984 Bus2=259004980
New Line.472684357 Bus1=261124294 Bus2=261124288
New Line.258851089 Bus1=258851084 Bus2=258851091
New Line.263514862 Bus1=263514859 Bus2=258850953
New Line.258851106 Bus1=258851103 Bus2=258851108
New Line.263514866 Bus1=258850650 Bus2=263514868
New Line.258851183 Bus1=258851180 Bus2=258851185
New Line.472684231 Bus1=261124314 Bus2=261123019
New Line.258851101 Bus1=258851096 Bus2=258851103
New Line.472684516 Bus1=472684499 Bus2=260745306
New Line.258851188 Bus1=258851180 Bus2=258851190
New Line.472684339 Bus1=261124288 Bus2=261124289
New Line.472684297 Bus1=472684299 Bus2=261124289
New Line.263514844 Bus1=263514841 Bus2=260745329
New Line.263514848 Bus1=258850633 Bus2=263514850
New Line.258850963 Bus1=258850960 Bus2=258850965
New Line.288683098 Bus1=288683093 Bus2=259357184
New Line.288683096 Bus1=258840356 Bus2=288683092
New Line.259005070 Bus1=259005065 Bus2=259005072
New Line.258850968 Bus1=258850523 Bus2=258850970
New Line.263514821 Bus1=258850618 Bus2=263514823
New Line.260784278 Bus1=260784275 Bus2=260784280
New Line.263514826 Bus1=263514823 Bus2=260745311
New Line.288683091 Bus1=288683092 Bus2=288683093
New Line.264516152 Bus1=258840000 Bus2=264516154
New Line.260039956 Bus1=258840361 Bus2=258840365
New Line.261002774 Bus1=261002775 Bus2=261002770
New Line.264516157 Bus1=264516154 Bus2=258840005
New Line.258850946 Bus1=258850941 Bus2=258850948
New Line.259005056 Bus1=258850975 Bus2=259005051
New Line.263514803 Bus1=258850608 Bus2=263514805
New Line.263514880 Bus1=263514877 Bus2=260745397
New Line.260784258 Bus1=260784255 Bus2=260784260
New Line.264279392 Bus1=260745422 Bus2=264279390
New Line.263514884 Bus1=258850710 Bus2=263514886
New Line.260972124 Bus1=260972125 Bus2=260972085
New Line.263514808 Bus1=263514805 Bus2=260745322
New Line.263514889 Bus1=263514886 Bus2=258850934
New Line.260784253 Bus1=260784250 Bus2=260784255
New Line.261002754 Bus1=261002751 Bus2=261002756
New Line.460932562 Bus1=460932563 Bus2=460932564
New Line.264259415 Bus1=260784230 Bus2=264259413
New Line.264285924 Bus1=261002710 Bus2=264285922
New Line.460932566 Bus1=258840430 Bus2=460932563
New Line.258850927 Bus1=258850924 Bus2=258850929
New Line.264259411 Bus1=260784225 Bus2=264259413
New Line.460932567 Bus1=460932563 Bus2=258840439
New Line.263514902 Bus1=258850750 Bus2=263514904
New Line.263514983 Bus1=258850929 Bus2=263514985
New Line.258850922 Bus1=258850917 Bus2=258850924
New Line.260972084 Bus1=260972085 Bus2=260972081
New Line.263514907 Bus1=263514904 Bus2=260745346
New Line.261002759 Bus1=261002756 Bus2=261002761
New Line.259005034 Bus1=259005036 Bus2=259005031
New Line.263514988 Bus1=263514985 Bus2=260745392
New Line.472683992 Bus1=261124328 Bus2=472683990
New Line.259172464 Bus1=259172465 Bus2=259172460
New Line.260972104 Bus1=260972105 Bus2=260972091
New Line.259005039 Bus1=259005041 Bus2=259005036
New Line.261002734 Bus1=261002735 Bus2=261002705
New Line.259983252 Bus1=259371838 Bus2=259371842
New Line.258850987 Bus1=258850982 Bus2=258850989
New Line.261002694 Bus1=261002695 Bus2=261002696
New Line.259005097 Bus1=259005092 Bus2=259005099
New Line.259005014 Bus1=259005016 Bus2=259005009
New Line.471228156 Bus1=258840462 Bus2=471228158
New Line.460932365 Bus1=259357188 Bus2=460932367
New Line.259005090 Bus1=259005087 Bus2=259005092
New Line.260784298 Bus1=260784295 Bus2=260784300
New Line.471228038 Bus1=258840516 Bus2=258840521
New Line.260784293 Bus1=260784290 Bus2=260784295
New Line.259005019 Bus1=259005021 Bus2=259005016
New Line.261031177 Bus1=261031178 Bus2=261031173
New Line.261031172 Bus1=261031173 Bus2=260972141
New Line.460932524 Bus1=258840413 Bus2=460932526
New Line.263661079 Bus1=263661076 Bus2=259005077
New Line.263661074 Bus1=259005076 Bus2=263661076
New Line.460932529 Bus1=460932526 Bus2=460932520
New Line.260874524 Bus1=258851069 Bus2=260874526
New Line.261002719 Bus1=261002716 Bus2=261002721
New Line.264504391 Bus1=258850730 Bus2=264504389
New Line.260784313 Bus1=260784310 Bus2=260784315
New Line.460932489 Bus1=258840435 Bus2=460932491
New Line.260745460 Bus1=260745457 Bus2=260745462
New Line.261031157 Bus1=261031154 Bus2=261031159
New Line.263730573 Bus1=263730570 Bus2=261002775
New Line.263730577 Bus1=259237105 Bus2=263730579
New Line.264254816 Bus1=260745442 Bus2=264254814
New Line.469800069 Bus1=264311802 Bus2=469800067
New Line.263730559 Bus1=259237110 Bus2=263730561
New Line.259004978 Bus1=259004980 Bus2=259004973
New Line.460932289 Bus1=258840356 Bus2=460932291
New Line.263511671 Bus1=258839980 Bus2=263511673
New Line.263511676 Bus1=263511673 Bus2=258851451
New Line.263862874 Bus1=258840210 Bus2=263862876
New Line.263862870 Bus1=263862867 Bus2=261137364
New Line.460932382 Bus1=460932379 Bus2=261124328
New Line.263862879 Bus1=263862876 Bus2=259371838
New Line.260745420 Bus1=260745417 Bus2=260745422
New Line.263511653 Bus1=258839871 Bus2=263511655
New Line.263511658 Bus1=263511655 Bus2=258851488
New Line.263511752 Bus1=258840297 Bus2=263511754
New Line.263565071 Bus1=263565068 Bus2=260784275
New Line.263511757 Bus1=263511754 Bus2=258840383
New Line.263565075 Bus1=259004990 Bus2=263565077
New Line.263730591 Bus1=263730588 Bus2=261002735
New Line.263973870 Bus1=259005072 Bus2=263973872
New Line.263973875 Bus1=263973872 Bus2=260784240
New Line.264292393 Bus1=260972096 Bus2=264292391
New Line.259004993 Bus1=259004995 Bus2=259004990
New Line.259586299 Bus1=258851232 Bus2=259586301
New Line.263511730 Bus1=263511727 Bus2=258851308
New Line.258840477 Bus1=258840472 Bus2=258840479
New Line.258850673 Bus1=258850670 Bus2=258850675
New Line.263511734 Bus1=258840252 Bus2=263511736
New Line.263511739 Bus1=263511736 Bus2=258851079
New Line.258850678 Bus1=258850670 Bus2=258850680
New Line.263511694 Bus1=263511691 Bus2=258840132
New Line.263645696 Bus1=263645693 Bus2=258840472
New Line.263511698 Bus1=258840042 Bus2=263511700
New Line.258850773 Bus1=258850770 Bus2=258850775
New Line.263701633 Bus1=263701630 Bus2=261031154
New Line.263511712 Bus1=263511709 Bus2=260745482
New Line.263511793 Bus1=263511790 Bus2=258851029
New Line.263701637 Bus1=258851446 Bus2=263701639
New Line.258850653 Bus1=258850650 Bus2=258850655
New Line.260745380 Bus1=258850929 Bus2=260745382
New Line.263511716 Bus1=258840205 Bus2=263511718
New Line.258840455 Bus1=258840452 Bus2=258840457
New Line.258840450 Bus1=258840440 Bus2=258840452
New Line.258839862 Bus1=258839859 Bus2=258839864
New Line.258850658 Bus1=258850655 Bus2=258850660
New Line.258840275 Bus1=258840272 Bus2=258840277
New Line.258840270 Bus1=258840267 Bus2=258840272
New Line.263701619 Bus1=258851446 Bus2=263701621
New Line.263638670 Bus1=263638667 Bus2=258840516
New Line.462745745 Bus1=258840361 Bus2=462745747
New Line.258839869 Bus1=258839864 Bus2=258839871
New Line.258850753 Bus1=258850754 Bus2=258850755
New Line.258839966 Bus1=258839958 Bus2=258839968
New Line.263701610 Bus1=258851447 Bus2=263701612
New Line.263714475 Bus1=258840219 Bus2=263714477
New Line.258850636 Bus1=258850633 Bus2=258850638
New Line.263565093 Bus1=259005099 Bus2=263565095
New Line.258850574 Bus1=258850569 Bus2=258850576
New Line.259360389 Bus1=259172461 Bus2=259207082
New Line.263701615 Bus1=263701612 Bus2=260972125
New Line.258850758 Bus1=258850745 Bus2=258850760
New Line.258839961 Bus1=258839958 Bus2=258839963
New Line.258840433 Bus1=258840430 Bus2=258840435
New Line.258839845 Bus1=258839840 Bus2=258839847
New Line.263565098 Bus1=263565095 Bus2=260784230
New Line.258850579 Bus1=258850569 Bus2=258850581
New Line.258840255 Bus1=258840252 Bus2=258840257
New Line.263973893 Bus1=263973890 Bus2=258850975
New Line.258840438 Bus1=258840439 Bus2=258840440
New Line.258840250 Bus1=258840247 Bus2=258840252
New Line.264494230 Bus1=264494227 Bus2=258840297
New Line.258840077 Bus1=258840072 Bus2=258840079
New Line.258840534 Bus1=258840531 Bus2=258840536
New Line.258839946 Bus1=258839943 Bus2=258839948
New Line.258850616 Bus1=258850613 Bus2=258850618
New Line.258850557 Bus1=258850554 Bus2=258850559
New Line.258840497 Bus1=258840494 Bus2=258840499
New Line.258850552 Bus1=258850549 Bus2=258850554
New Line.258850693 Bus1=258850690 Bus2=258850695
New Line.264494179 Bus1=258839906 Bus2=264494181
New Line.258839941 Bus1=258839936 Bus2=258839943
New Line.258840354 Bus1=258840351 Bus2=258840356
New Line.263761831 Bus1=258840011 Bus2=263761833
New Line.258850611 Bus1=258850608 Bus2=258850613
New Line.258851457 Bus1=258851452 Bus2=258851459
New Line.263761836 Bus1=263761833 Bus2=258840012
New Line.258840539 Bus1=258840536 Bus2=258840541
New Line.258840411 Bus1=258840408 Bus2=258840413
New Line.258851450 Bus1=258851451 Bus2=258851452
New Line.258850698 Bus1=258850695 Bus2=258850700
New Line.258851276 Bus1=258851261 Bus2=258851278
New Line.264494216 Bus1=258840272 Bus2=264494218
New Line.258840233 Bus1=258840230 Bus2=258840235
New Line.264021664 Bus1=258850755 Bus2=264021666
New Line.258840359 Bus1=258840356 Bus2=258840361
New Line.258851271 Bus1=258851268 Bus2=258851273
New Line.258850713 Bus1=258850710 Bus2=258850715
New Line.258840055 Bus1=258840052 Bus2=258840057
New Line.263701592 Bus1=258851447 Bus2=263701594
New Line.258839924 Bus1=258839921 Bus2=258839926
New Line.263701597 Bus1=263701594 Bus2=260972105
New Line.258850535 Bus1=258850530 Bus2=258850537
New Line.264021669 Bus1=264021666 Bus2=261311161
New Line.258840337 Bus1=258840334 Bus2=258840339
New Line.258850718 Bus1=258850715 Bus2=258850720
New Line.258840332 Bus1=258840329 Bus2=258840334
New Line.258851435 Bus1=258851392 Bus2=258851437
New Line.258839884 Bus1=258839881 Bus2=258839886
New Line.258851370 Bus1=258851365 Bus2=258851372
New Line.258851430 Bus1=258851422 Bus2=258851432
New Line.258839929 Bus1=258839926 Bus2=258839931
New Line.258840157 Bus1=258840154 Bus2=258840159
New Line.264567406 Bus1=258850730 Bus2=264567408
New Line.258840152 Bus1=258840005 Bus2=258840154
New Line.258840213 Bus1=258840210 Bus2=258840215
New Line.258851252 Bus1=258851249 Bus2=258851254
New Line.258840290 Bus1=258840287 Bus2=258840292
New Line.258839889 Bus1=258839886 Bus2=258839891
New Line.258840035 Bus1=258840036 Bus2=258840037
New Line.258840218 Bus1=258840219 Bus2=258840220
New Line.258850516 Bus1=258840467 Bus2=258850518
New Line.263515073 Bus1=258851103 Bus2=263515075
New Line.258839904 Bus1=258839901 Bus2=258839906
New Line.258840030 Bus1=258840027 Bus2=258840032
New Line.258851072 Bus1=258851069 Bus2=258851074
New Line.258839983 Bus1=258839980 Bus2=258839985
New Line.258850594 Bus1=258850591 Bus2=258850596
New Line.258851259 Bus1=258851249 Bus2=258851261
New Line.258840396 Bus1=258840397 Bus2=258840398
New Line.258840315 Bus1=258840312 Bus2=258840317
New Line.472684462 Bus1=472683911 Bus2=472684459
New Line.258851415 Bus1=258851412 Bus2=258851417
New Line.263515078 Bus1=263515075 Bus2=260745432
New Line.258840310 Bus1=258840307 Bus2=258840312
New Line.258840391 Bus1=258840388 Bus2=258840393
New Line.258851353 Bus1=258851348 Bus2=258851355
New Line.258851410 Bus1=258851407 Bus2=258851412
New Line.258839988 Bus1=258839985 Bus2=258839990
New Line.258840135 Bus1=258840132 Bus2=258840137
New Line.264494197 Bus1=258840047 Bus2=264494199
New Line.258851173 Bus1=258851170 Bus2=258851175
New Line.258851358 Bus1=258840178 Bus2=258851360
New Line.264494193 Bus1=264494190 Bus2=258840000
New Line.258851230 Bus1=258851227 Bus2=258851232
New Line.466987550 Bus1=460932491 Bus2=466987549
New Line.466987551 Bus1=466987549 Bus2=466987507
New Line.258840015 Bus1=258840012 Bus2=258840017
New Line.258851057 Bus1=258851054 Bus2=258851059
New Line.258840091 Bus1=258840072 Bus2=258840093
New Line.258851178 Bus1=258851170 Bus2=258851180
New Line.263515051 Bus1=263515048 Bus2=260745472
New Line.259371841 Bus1=259371842 Bus2=259371843
New Line.259371846 Bus1=259371843 Bus2=259371848
New Line.258851336 Bus1=258851328 Bus2=258851338
New Line.263515055 Bus1=258851096 Bus2=263515057
New Line.258840098 Bus1=258840093 Bus2=258840100
New Line.259545341 Bus1=259545338 Bus2=259545343
New Line.258851331 Bus1=258851328 Bus2=258851333
New Line.258840115 Bus1=258840112 Bus2=258840117
New Line.258851296 Bus1=258851293 Bus2=258851298
New Line.264254789 Bus1=260745334 Bus2=264254787
New Line.258840193 Bus1=258840185 Bus2=258840195
New Line.258851215 Bus1=258851212 Bus2=258851217
New Line.258840110 Bus1=258840086 Bus2=258840112
New Line.259121508 Bus1=258840511 Bus2=258840515
New Line.263515150 Bus1=263515147 Bus2=259172465
New Line.258851153 Bus1=258851128 Bus2=258851155
New Line.264254785 Bus1=264254787 Bus2=260745329
New Line.258851210 Bus1=258851207 Bus2=258851212
New Line.258851291 Bus1=258851254 Bus2=258851293
New Line.263515154 Bus1=258851452 Bus2=263515156
New Line.258851037 Bus1=258840435 Bus2=258851039
New Line.263515033 Bus1=263515030 Bus2=260745412
New Line.264341149 Bus1=260987679 Bus2=264341151
New Line.258840198 Bus1=258840195 Bus2=258840200
New Line.258851032 Bus1=258851029 Bus2=258851034
New Line.263515159 Bus1=263515156 Bus2=260745487
New Line.258851158 Bus1=258851155 Bus2=258851160
New Line.472684368 Bus1=460932401 Bus2=261124294
New Line.263515037 Bus1=258851059 Bus2=263515039
New Line.263815495 Bus1=263815492 Bus2=261085128
New Line.258851316 Bus1=258851313 Bus2=258851318
New Line.258851395 Bus1=258851387 Bus2=258851397
New Line.263815490 Bus1=259312123 Bus2=263815492
New Line.258851390 Bus1=258851387 Bus2=258851392
New Line.258851136 Bus1=258851133 Bus2=258851138
New Line.263515132 Bus1=263515129 Bus2=258851323
New Line.259357187 Bus1=259357188 Bus2=259357189
New Line.263515136 Bus1=258851376 Bus2=263515138
New Line.258851131 Bus1=258851123 Bus2=258851133
New Line.258851017 Bus1=258851014 Bus2=258851019
New Line.258851094 Bus1=258851091 Bus2=258851096
New Line.258851012 Bus1=258851004 Bus2=258851014
New Line.263515010 Bus1=258851004 Bus2=263515012
New Line.263515091 Bus1=258851212 Bus2=263515093
New Line.259500286 Bus1=258840393 Bus2=258840397
New Line.263515096 Bus1=263515093 Bus2=258851237
New Line.263515015 Bus1=263515012 Bus2=260745402
New Line.258851116 Bus1=258851108 Bus2=258851118
New Line.264275007 Bus1=260972080 Bus2=264275005
New Line.472684225 Bus1=261124309 Bus2=261124314
New Line.258851195 Bus1=258851185 Bus2=258851197
New Line.264275003 Bus1=264275005 Bus2=260972081
New Line.472684220 Bus1=460932413 Bus2=261124309
New Line.258851111 Bus1=258851108 Bus2=258851113
New Line.263515114 Bus1=263515111 Bus2=260745442
New Line.264530184 Bus1=259004990 Bus2=264530186
New Line.264530189 Bus1=264530186 Bus2=259312123
New Line.263515118 Bus1=258851118 Bus2=263515120
New Line.259266827 Bus1=258840000 Bus2=258840011
New Line.263514871 Bus1=263514868 Bus2=258850941
New Line.472684283 Bus1=261123019 Bus2=261123020
New Line.263514875 Bus1=258850705 Bus2=263514877
New Line.472684281 Bus1=261123020 Bus2=472684279
New Line.259237108 Bus1=259004980 Bus2=259237110
New Line.259237103 Bus1=259004984 Bus2=259237105
New Line.264379502 Bus1=264379499 Bus2=258850633
New Line.264316524 Bus1=261002700 Bus2=264316522
New Line.472684301 Bus1=472684279 Bus2=472684299
New Line.263514853 Bus1=263514850 Bus2=258850960
New Line.260784268 Bus1=260784265 Bus2=260784270
New Line.263514857 Bus1=258850638 Bus2=263514859
New Line.260784263 Bus1=260784260 Bus2=260784265
New Line.261002764 Bus1=261002761 Bus2=261002700
New Line.472684083 Bus1=462745747 Bus2=472684080
New Line.261002769 Bus1=261002770 Bus2=261002695
New Line.264279388 Bus1=260745427 Bus2=264279390
New Line.259005063 Bus1=259005026 Bus2=259005065
New Line.263514830 Bus1=258850623 Bus2=263514832
New Line.260784248 Bus1=260784245 Bus2=260784250
New Line.263514835 Bus1=263514832 Bus2=260745334
New Line.263514839 Bus1=258850623 Bus2=263514841
New Line.264304369 Bus1=261107771 Bus2=264304367
New Line.261002749 Bus1=261002746 Bus2=261002751
New Line.259005044 Bus1=259005041 Bus2=259005046
New Line.472683909 Bus1=469799524 Bus2=472683911
New Line.472683988 Bus1=472683990 Bus2=472683966
New Line.263514812 Bus1=258850613 Bus2=263514814
New Line.263514893 Bus1=258850720 Bus2=263514895
New Line.263514817 Bus1=263514814 Bus2=260745317
New Line.471228161 Bus1=471228158 Bus2=263645693
New Line.259005049 Bus1=259005051 Bus2=259005041
New Line.261002724 Bus1=261002721 Bus2=261002726
New Line.263514898 Bus1=263514895 Bus2=258850912
New Line.258850997 Bus1=258850994 Bus2=258850999
New Line.259207081 Bus1=259207082 Bus2=258851446
New Line.258850915 Bus1=258850912 Bus2=258850917
New Line.263514992 Bus1=260745382 Bus2=263514994
New Line.260972094 Bus1=260972095 Bus2=260972096
New Line.258850992 Bus1=258850989 Bus2=258850994
